# Generated by REPEAT Assigner based on pymatgen
data_DB0-m2_o7_o24_f0_nbo_sqe
_audit_creation_date              2022-05-24
_audit_creation_method            REPEAT_Assigner
_cell_length_a                    41.421619
_cell_length_b                    35.571468
_cell_length_c                    21.223373
_cell_angle_alpha                 90.000000
_cell_angle_beta                  59.424363
_cell_angle_gamma                 90.000000
_cell_volume                      26923.122549
_symmetry_space_group_name_H-M    P1
_symmetry_Int_Tables_number       1
loop_
    _symmetry_equiv_pos_site_id
    _symmetry_equiv_pos_as_xyz
    1  x,y,z
loop_
    _atom_site_type_symbol
    _atom_site_label
    _atom_site_fract_x
    _atom_site_fract_y
    _atom_site_fract_z
    _atom_type_partial_charge
    O   O1    0.945192  0.467598  0.056641  -0.623910
    O   O2    0.054808  0.467598  0.943360  -0.623881
    O   O3    0.445192  0.967598  0.056641  -0.623884
    O   O4    0.554808  0.967598  0.943360  -0.623886
    O   O5    0.945190  0.531661  0.053744  -0.618937
    O   O6    0.054810  0.531661  0.946256  -0.618916
    O   O7    0.445190  0.031661  0.053744  -0.618908
    O   O8    0.554810  0.031661  0.946256  -0.618906
    C   C1    0.926813  0.499635  0.073690  0.711986
    C   C2    0.073187  0.499635  0.926310  0.711901
    C   C3    0.426813  0.999635  0.073690  0.712010
    C   C4    0.573187  0.999635  0.926310  0.711929
    O   O9    0.001557  0.467494  0.089273  -0.652801
    O   O10   0.998443  0.467494  0.910727  -0.652862
    O   O11   0.501557  0.967494  0.089273  -0.652810
    O   O12   0.498443  0.967494  0.910727  -0.652852
    O   O13   0.999390  0.531738  0.091485  -0.663247
    O   O14   0.000610  0.531738  0.908516  -0.663264
    O   O15   0.499390  0.031738  0.091485  -0.663208
    O   O16   0.500610  0.031738  0.908516  -0.663230
    C   C5    0.000673  0.499611  0.120254  0.684513
    C   C6    0.999327  0.499611  0.879746  0.684329
    C   C7    0.500673  0.999611  0.120254  0.684363
    C   C8    0.499327  0.999611  0.879746  0.684241
    Cu  Cu1   0.000000  0.462625  0.000000  1.038308
    Cu  Cu2   0.500000  0.962625  0.000000  1.038308
    Cu  Cu3   0.000000  0.536621  0.000000  1.036589
    Cu  Cu4   0.500000  0.036621  0.000000  1.036558
    C   C9    0.967095  0.508740  0.262261  -0.014937
    C   C10   0.032905  0.508740  0.737739  -0.014729
    C   C11   0.467095  0.008740  0.262261  -0.014934
    C   C12   0.532905  0.008740  0.737739  -0.014742
    C   C13   0.991796  0.533680  0.278340  -0.064210
    C   C14   0.008204  0.533680  0.721660  -0.064494
    C   C15   0.491796  0.033680  0.278340  -0.064258
    C   C16   0.508204  0.033680  0.721660  -0.064493
    H   H1    0.984290  0.561703  0.304886  0.049214
    H   H2    0.015710  0.561703  0.695114  0.049337
    H   H3    0.484290  0.061703  0.304886  0.049227
    H   H4    0.515710  0.061703  0.695114  0.049336
    H   H5    0.939149  0.516117  0.270726  0.035195
    H   H6    0.060851  0.516117  0.729274  0.035086
    H   H7    0.439149  0.016117  0.270726  0.035194
    H   H8    0.560851  0.016117  0.729274  0.035087
    C   C17   0.000958  0.499903  0.308933  0.158687
    C   C18   0.999042  0.499903  0.691067  0.158673
    C   C19   0.500958  0.999903  0.308933  0.158750
    C   C20   0.499042  0.999903  0.691067  0.158724
    C   C21   0.976251  0.474943  0.294179  -0.096664
    C   C22   0.023749  0.474943  0.705822  -0.096715
    C   C23   0.476251  0.974943  0.294179  -0.096673
    C   C24   0.523749  0.974943  0.705822  -0.096713
    C   C25   0.010033  0.465826  0.219848  -0.077384
    C   C26   0.989967  0.465826  0.780152  -0.077325
    C   C27   0.510033  0.965826  0.219848  -0.077428
    C   C28   0.489967  0.965826  0.780152  -0.077355
    C   C29   0.034772  0.490799  0.235908  -0.059131
    C   C30   0.965228  0.490799  0.764093  -0.059038
    C   C31   0.534772  0.990799  0.235908  -0.059147
    C   C32   0.465228  0.990799  0.764093  -0.059038
    C   C33   0.025622  0.524560  0.203954  -0.085303
    C   C34   0.974378  0.524560  0.796046  -0.085137
    C   C35   0.525622  0.024560  0.203954  -0.085337
    C   C36   0.474378  0.024560  0.796046  -0.085175
    C   C37   0.000891  0.499614  0.189236  0.141691
    C   C38   0.999108  0.499614  0.810764  0.141749
    C   C39   0.500891  0.999614  0.189236  0.141853
    C   C40   0.499108  0.999614  0.810764  0.141837
    H   H9    0.955854  0.454432  0.333746  0.061599
    H   H10   0.044146  0.454432  0.666254  0.061573
    H   H11   0.455854  0.954432  0.333746  0.061595
    H   H12   0.544146  0.954432  0.666254  0.061569
    H   H13   0.017614  0.437700  0.193741  0.058916
    H   H14   0.982386  0.437700  0.806259  0.058904
    H   H15   0.517614  0.937700  0.193741  0.058934
    H   H16   0.482386  0.937700  0.806259  0.058911
    H   H17   0.062818  0.483346  0.226844  0.048525
    H   H18   0.937182  0.483346  0.773157  0.048469
    H   H19   0.562818  0.983346  0.226844  0.048528
    H   H20   0.437182  0.983346  0.773157  0.048469
    H   H21   0.046033  0.545054  0.164366  0.059920
    H   H22   0.953967  0.545054  0.835635  0.059871
    H   H23   0.546033  0.045054  0.164366  0.059925
    H   H24   0.453967  0.045054  0.835635  0.059875
    C   C41   0.672957  0.499922  0.271432  -0.230397
    C   C42   0.327042  0.499922  0.728568  -0.230147
    C   C43   0.172957  0.999922  0.271432  -0.230397
    C   C44   0.827042  0.999922  0.728568  -0.230143
    H   H25   0.687998  0.499894  0.212285  0.145357
    H   H26   0.312002  0.499894  0.787715  0.145355
    H   H27   0.187998  0.999894  0.212285  0.145357
    H   H28   0.812002  0.999894  0.787715  0.145355
    C   C45   0.634182  0.499997  0.310000  -0.034385
    C   C46   0.365817  0.499997  0.690000  -0.034690
    C   C47   0.134182  0.999997  0.310000  -0.034375
    C   C48   0.865817  0.999997  0.690000  -0.034701
    H   H29   0.619500  0.500022  0.280047  0.104848
    H   H30   0.380500  0.500022  0.719953  0.104782
    H   H31   0.119500  0.000022  0.280047  0.104842
    H   H32   0.880500  0.000022  0.719953  0.104783
    C   C49   0.614557  0.500034  0.385786  -0.096461
    C   C50   0.385443  0.500034  0.614214  -0.096418
    C   C51   0.114557  0.000034  0.385786  -0.096477
    C   C52   0.885443  0.000034  0.614214  -0.096392
    C   C53   0.634360  0.499998  0.422254  -0.062816
    C   C54   0.365640  0.499998  0.577747  -0.062501
    C   C55   0.134360  0.999998  0.422254  -0.062804
    C   C56   0.865640  0.999998  0.577747  -0.062507
    H   H33   0.619818  0.500024  0.481351  0.126657
    H   H34   0.380182  0.500024  0.518649  0.126528
    H   H35   0.119818  0.000024  0.481351  0.126653
    H   H36   0.880182  0.000024  0.518649  0.126530
    C   C57   0.673136  0.499923  0.383487  -0.225518
    C   C58   0.326864  0.499923  0.616513  -0.225774
    C   C59   0.173136  0.999923  0.383487  -0.225525
    C   C60   0.826864  0.999923  0.616513  -0.225778
    H   H37   0.688317  0.499896  0.412495  0.145390
    H   H38   0.311683  0.499896  0.587505  0.145393
    H   H39   0.188317  0.999896  0.412495  0.145392
    H   H40   0.811683  0.999896  0.587505  0.145394
    C   C61   0.692568  0.499884  0.307991  0.311933
    C   C62   0.307432  0.499884  0.692009  0.312101
    C   C63   0.192568  0.999884  0.307991  0.311929
    C   C64   0.807432  0.999884  0.692009  0.312095
    C   C65   0.733050  0.499812  0.267613  -0.171442
    C   C66   0.266950  0.499812  0.732388  -0.171482
    C   C67   0.233050  0.999812  0.267613  -0.171432
    C   C68   0.766950  0.999812  0.732388  -0.171471
    C   C69   0.766983  0.499761  0.233743  -0.158824
    C   C70   0.233017  0.499761  0.766257  -0.158817
    C   C71   0.266983  0.999761  0.233743  -0.158832
    C   C72   0.733017  0.999761  0.766257  -0.158825
    C   C73   0.827008  0.533172  0.172218  -0.221532
    C   C74   0.172992  0.533172  0.827783  -0.221510
    C   C75   0.327008  0.033172  0.172218  -0.221525
    C   C76   0.672992  0.033172  0.827783  -0.221500
    H   H41   0.811915  0.559515  0.186104  0.138955
    H   H42   0.188085  0.559515  0.813896  0.138945
    H   H43   0.311915  0.059515  0.186104  0.138951
    H   H44   0.688085  0.059515  0.813896  0.138940
    C   C77   0.865782  0.533200  0.133396  -0.038002
    C   C78   0.134218  0.533200  0.866604  -0.038022
    C   C79   0.365782  0.033200  0.133396  -0.037987
    C   C80   0.634218  0.033200  0.866604  -0.038026
    H   H45   0.880408  0.559788  0.117514  0.111026
    H   H46   0.119592  0.559788  0.882487  0.111033
    H   H47   0.380408  0.059788  0.117514  0.111021
    H   H48   0.619592  0.059788  0.882487  0.111034
    C   C81   0.885475  0.499657  0.115201  -0.094856
    C   C82   0.114525  0.499657  0.884799  -0.094782
    C   C83   0.385475  0.999657  0.115201  -0.094904
    C   C84   0.614525  0.999657  0.884799  -0.094797
    C   C85   0.865740  0.466144  0.136513  -0.052724
    C   C86   0.134260  0.466144  0.863487  -0.052765
    C   C87   0.365740  0.966144  0.136513  -0.052712
    C   C88   0.634260  0.966144  0.863487  -0.052773
    H   H49   0.880336  0.439535  0.123102  0.116168
    H   H50   0.119664  0.439535  0.876898  0.116179
    H   H51   0.380336  0.939535  0.123102  0.116162
    H   H52   0.619664  0.939535  0.876898  0.116183
    C   C89   0.826964  0.466235  0.175332  -0.216453
    C   C90   0.173036  0.466235  0.824669  -0.216427
    C   C91   0.326964  0.966235  0.175332  -0.216447
    C   C92   0.673036  0.966235  0.824669  -0.216419
    H   H53   0.811835  0.439916  0.191669  0.138884
    H   H54   0.188165  0.439916  0.808331  0.138878
    H   H55   0.311835  0.939916  0.191669  0.138881
    H   H56   0.688165  0.939916  0.808331  0.138874
    C   C93   0.807465  0.499720  0.193303  0.298669
    C   C94   0.192535  0.499720  0.806697  0.298651
    C   C95   0.307465  0.999720  0.193303  0.298668
    C   C96   0.692535  0.999720  0.806697  0.298651
    O   O17   0.031965  0.554989  0.467269  -0.620906
    O   O18   0.968035  0.554989  0.532731  -0.620798
    O   O19   0.531965  0.054989  0.467269  -0.620898
    O   O20   0.468035  0.054989  0.532731  -0.620770
    C   C97   0.000000  0.573358  0.500000  0.701544
    C   C98   0.500000  0.073358  0.500000  0.701510
    O   O21   0.032549  0.499021  0.377315  -0.646276
    O   O22   0.967451  0.499021  0.622685  -0.646367
    O   O23   0.532549  0.999021  0.377315  -0.646262
    O   O24   0.467451  0.999021  0.622685  -0.646352
    O   O25   0.968469  0.501213  0.439984  -0.661324
    O   O26   0.031531  0.501213  0.560017  -0.661141
    O   O27   0.468469  0.001213  0.439984  -0.661297
    O   O28   0.531531  0.001213  0.560017  -0.661109
    C   C99   0.000666  0.500078  0.378420  0.677414
    C   C100  0.999334  0.500078  0.621580  0.677376
    C   C101  0.500666  0.000078  0.378420  0.677365
    C   C102  0.499334  0.000078  0.621580  0.677306
    Cu  Cu5   0.036926  0.500163  0.463896  1.030883
    Cu  Cu6   0.963074  0.500163  0.536105  1.031015
    Cu  Cu7   0.536926  0.000163  0.463896  1.030854
    Cu  Cu8   0.463074  0.000163  0.536105  1.030969
    O   O29   0.031951  0.445334  0.470244  -0.617883
    O   O30   0.968049  0.445334  0.529756  -0.617882
    O   O31   0.531951  0.945334  0.470244  -0.617858
    O   O32   0.468049  0.945334  0.529756  -0.617833
    C   C103  0.000000  0.426967  0.500000  0.712136
    C   C104  0.500000  0.926967  0.500000  0.712100
    O   O33   0.500094  0.554997  0.553591  -0.622725
    O   O34   0.499906  0.554997  0.446410  -0.622787
    O   O35   0.000094  0.054997  0.553591  -0.622742
    O   O36   0.999906  0.054997  0.446410  -0.622805
    C   C105  0.500000  0.573381  0.500000  0.704359
    C   C106  -0.000000  0.073381  0.500000  0.704398
    O   O37   0.554908  0.500118  0.498938  -0.632108
    O   O38   0.445092  0.500118  0.501063  -0.632225
    O   O39   0.054908  0.000118  0.498938  -0.632121
    O   O40   0.945092  0.000118  0.501063  -0.632232
    O   O41   0.554744  0.500108  0.391755  -0.613586
    O   O42   0.445256  0.500108  0.608245  -0.613426
    O   O43   0.054744  0.000108  0.391755  -0.613590
    O   O44   0.945256  0.000108  0.608245  -0.613427
    C   C107  0.573217  0.500095  0.427008  0.722377
    C   C108  0.426783  0.500095  0.572992  0.722367
    C   C109  0.073217  0.000095  0.427008  0.722393
    C   C110  0.926783  0.000095  0.572992  0.722337
    Cu  Cu9   0.500093  0.500152  0.561684  1.017412
    Cu  Cu10  0.499907  0.500152  0.438317  1.017429
    Cu  Cu11  0.000093  0.000152  0.561684  1.017426
    Cu  Cu12  0.999907  0.000152  0.438317  1.017445
    O   O45   0.500078  0.445308  0.553608  -0.622134
    O   O46   0.499922  0.445308  0.446392  -0.622098
    O   O47   0.000078  0.945308  0.553608  -0.622132
    O   O48   0.999922  0.945308  0.446392  -0.622105
    C   C111  0.500000  0.426926  0.500000  0.704993
    C   C112  0.000000  0.926926  0.500000  0.705008
    C   C113  0.500071  0.327076  0.556076  -0.233772
    C   C114  0.499929  0.327076  0.443924  -0.233851
    C   C115  0.000071  0.827076  0.556076  -0.233774
    C   C116  0.999929  0.827076  0.443924  -0.233852
    H   H57   0.500127  0.311897  0.600140  0.145994
    H   H58   0.499873  0.311897  0.399860  0.146030
    H   H59   0.000127  0.811897  0.600140  0.145994
    H   H60   0.999873  0.811897  0.399860  0.146030
    C   C117  0.500071  0.365900  0.556180  -0.059440
    C   C118  0.499929  0.365900  0.443820  -0.059501
    C   C119  0.000071  0.865900  0.556180  -0.059439
    C   C120  0.999929  0.865900  0.443820  -0.059504
    H   H61   0.500127  0.380555  0.600715  0.118462
    H   H62   0.499872  0.380555  0.399286  0.118488
    H   H63   0.000127  0.880555  0.600715  0.118462
    H   H64   0.999872  0.880555  0.399286  0.118491
    C   C121  0.500000  0.385588  0.500000  -0.067980
    C   C122  0.000000  0.885588  0.500000  -0.067985
    C   C123  0.500000  0.307590  0.500000  0.324832
    C   C124  0.000000  0.807590  0.500000  0.324840
    C   C125  0.500000  0.267117  0.500000  -0.177509
    C   C126  0.000000  0.767117  0.500000  -0.177518
    C   C127  0.000000  0.733165  0.500000  -0.153093
    C   C128  0.500000  0.233165  0.500000  -0.153096
    C   C129  0.966591  0.673206  0.534176  -0.216309
    C   C130  0.033409  0.673206  0.465824  -0.216322
    C   C131  0.466591  0.173206  0.534176  -0.216295
    C   C132  0.533409  0.173206  0.465824  -0.216311
    H   H65   0.940339  0.688385  0.561030  0.137891
    H   H66   0.059661  0.688385  0.438970  0.137885
    H   H67   0.440339  0.188385  0.561030  0.137887
    H   H68   0.559661  0.188385  0.438970  0.137881
    C   C133  0.966529  0.634382  0.534240  -0.063713
    C   C134  0.033471  0.634382  0.465761  -0.063715
    C   C135  0.466529  0.134382  0.534240  -0.063730
    C   C136  0.533471  0.134382  0.465761  -0.063732
    H   H69   0.939996  0.619729  0.561381  0.120256
    H   H70   0.060004  0.619729  0.438619  0.120296
    H   H71   0.439996  0.119729  0.561381  0.120261
    H   H72   0.560004  0.119729  0.438619  0.120301
    C   C137  0.000000  0.614694  0.500000  -0.066243
    C   C138  0.500000  0.114694  0.500000  -0.066220
    C   C139  0.000000  0.692692  0.500000  0.298233
    C   C140  0.500000  0.192692  0.500000  0.298223
    C   C141  0.499900  0.673235  0.443953  -0.231857
    C   C142  0.500100  0.673235  0.556047  -0.231759
    C   C143  0.999900  0.173235  0.443953  -0.231923
    C   C144  0.000100  0.173235  0.556047  -0.231890
    H   H73   0.499822  0.688413  0.399912  0.145697
    H   H74   0.500178  0.688413  0.600088  0.145647
    H   H75   0.999822  0.188413  0.399912  0.145707
    H   H76   0.000178  0.188413  0.600088  0.145673
    C   C145  0.499900  0.634410  0.443849  -0.061978
    C   C146  0.500100  0.634410  0.556151  -0.062112
    C   C147  0.999900  0.134410  0.443849  -0.061939
    C   C148  0.000100  0.134410  0.556151  -0.061994
    H   H77   0.499821  0.619755  0.399338  0.118977
    H   H78   0.500179  0.619755  0.600662  0.119047
    H   H79   0.999821  0.119755  0.399338  0.118977
    H   H80   0.000179  0.119755  0.600662  0.119031
    C   C149  0.500000  0.614720  0.500000  -0.063797
    C   C150  -0.000000  0.114720  0.500000  -0.063872
    C   C151  0.500000  0.692722  0.500000  0.319839
    C   C152  -0.000000  0.192722  0.500000  0.319945
    C   C153  0.500000  0.733197  0.500000  -0.170899
    C   C154  0.000000  0.233197  0.500000  -0.170933
    C   C155  0.000000  0.267151  0.500000  -0.160546
    C   C156  0.500000  0.767151  0.500000  -0.160565
    C   C157  0.966610  0.327113  0.531001  -0.223372
    C   C158  0.033389  0.327113  0.468999  -0.223388
    C   C159  0.466610  0.827113  0.531001  -0.223364
    C   C160  0.533389  0.827113  0.468999  -0.223382
    H   H81   0.940373  0.311935  0.555361  0.139174
    H   H82   0.059627  0.311935  0.444639  0.139120
    H   H83   0.440373  0.811935  0.555361  0.139171
    H   H84   0.559627  0.811935  0.444639  0.139117
    C   C161  0.966548  0.365938  0.531060  -0.051441
    C   C162  0.033451  0.365938  0.468941  -0.051454
    C   C163  0.466548  0.865938  0.531060  -0.051477
    C   C164  0.533451  0.865938  0.468941  -0.051471
    H   H85   0.940030  0.380592  0.555677  0.119672
    H   H86   0.059970  0.380592  0.444323  0.119605
    H   H87   0.440030  0.880592  0.555677  0.119689
    H   H88   0.559970  0.880592  0.444323  0.119608
    C   C165  0.000000  0.385628  0.500000  -0.096486
    C   C166  0.500000  0.885628  0.500000  -0.096461
    C   C167  0.000000  0.307626  0.500000  0.308639
    C   C168  0.500000  0.807626  0.500000  0.308650
