# Charges generated by MEPO-ML
data_DB0-m2_o29_frl
_audit_creation_date              2025-06-18
_audit_creation_method            MEPO-ML
_cell_length_a                    47.027107
_cell_length_b                    50.868969
_cell_length_c                    57.552086
_cell_angle_alpha                 89.607729
_cell_angle_beta                  89.754803
_cell_angle_gamma                 71.839223
_cell_volume                      130815.572622
_symmetry_space_group_name_H-M    P1
_symmetry_Int_Tables_number       1
loop_
    _symmetry_equiv_pos_site_id
    _symmetry_equiv_pos_as_xyz
    1  x,y,z
loop_
    _atom_site_type_symbol
    _atom_site_label
    _atom_site_fract_x
    _atom_site_fract_y
    _atom_site_fract_z
    _atom_type_partial_charge
    C   C1    0.015919  0.524162  0.474664  0.761571
    C   C2    0.227921  0.025841  0.781855  0.717221
    C   C3    0.103602  0.227791  0.692485  0.132238
    C   C4    0.093356  0.229112  0.715004  -0.136059
    C   C5    0.072286  0.252798  0.722617  -0.031569
    C   C6    0.124801  0.203908  0.685246  -0.132384
    C   C7    0.167168  0.120462  0.769560  -0.120799
    C   C8    0.024065  0.429540  0.556710  -0.075355
    C   C9    0.060050  0.296098  0.669443  0.050470
    C   C10   0.096190  0.272148  0.640780  0.049862
    C   C11   0.073344  0.295388  0.647782  0.012257
    C   C12   0.035893  0.319156  0.675064  -0.194191
    C   C13   0.181926  0.098501  0.786056  0.740873
    C   C14   0.026401  0.341327  0.660155  -0.030819
    C   C15   0.040597  0.341136  0.639232  -0.135866
    C   C16   0.063821  0.318166  0.633015  0.128991
    C   C17   0.077551  0.318292  0.611894  -0.140309
    C   C18   0.068120  0.341108  0.597448  0.463170
    C   C19   0.031403  0.363674  0.624351  0.471742
    C   C20   0.025655  0.383393  0.566543  -0.192117
    C   C21   0.019767  0.404799  0.550723  -0.047525
    C   C22   0.033201  0.433023  0.578959  -0.048627
    C   C23   0.039131  0.411514  0.594769  -0.188120
    C   C24   0.188645  0.095061  0.849091  0.729669
    C   C25   0.035918  0.386481  0.588438  0.260224
    C   C26   0.071171  0.273902  0.684894  0.059476
    C   C27   0.093082  0.250206  0.677456  0.001473
    C   C28   0.104822  0.248797  0.655181  0.061893
    C   C29   0.061309  0.274900  0.707838  -0.193966
    C   C30   0.134886  0.201824  0.662722  -0.032961
    C   C31   0.110359  0.273077  0.619637  -0.196785
    C   C32   0.101068  0.295832  0.605418  -0.028708
    C   C33   0.124962  0.223877  0.647815  -0.196710
    C   C34   0.065269  0.603226  0.226729  0.446703
    C   C35   0.031455  0.445534  0.093765  0.697959
    C   C36   0.014351  0.608426  0.223037  0.453480
    C   C37   0.033822  0.591705  0.173228  -0.195074
    C   C38   0.035473  0.572670  0.155811  -0.024311
    C   C39   0.067969  0.537286  0.179443  -0.048090
    C   C40   0.066329  0.556190  0.196687  -0.168045
    C   C41   0.048517  0.583274  0.194062  0.240564
    C   C42   0.033240  0.616829  0.259745  0.109958
    C   C43   0.061083  0.611096  0.249760  -0.107645
    C   C44   0.084927  0.611795  0.263166  -0.055316
    C   C45   0.009503  0.616992  0.245857  -0.134082
    C   C46   0.091780  0.475339  0.099097  0.755613
    C   C47   0.051726  0.545159  0.159266  -0.117944
    C   C48   0.014688  0.544124  0.455955  -0.133457
    C   C49   0.051697  0.615026  0.321595  0.052028
    C   C50   0.998231  0.626567  0.317561  0.043527
    C   C51   0.023650  0.618973  0.331343  0.021023
    C   C52   0.076636  0.606702  0.336068  -0.189649
    C   C53   0.073806  0.600997  0.359151  -0.041298
    C   C54   0.046108  0.603782  0.368490  -0.132625
    C   C55   0.021070  0.613845  0.354866  0.115896
    C   C56   0.993506  0.617111  0.364697  -0.114189
    C   C57   0.049049  0.523592  0.143521  0.739347
    C   C58   0.991490  0.608132  0.387164  0.445743
    C   C59   0.043519  0.594659  0.390864  0.466531
    C   C60   0.024176  0.584673  0.440927  -0.198574
    C   C61   0.024033  0.567062  0.459319  -0.022575
    C   C62   0.004809  0.539385  0.434310  -0.027922
    C   C63   0.004675  0.557050  0.416153  -0.191589
    C   C64   0.014537  0.579599  0.419261  0.255565
    C   C65   0.054363  0.617422  0.297512  0.039887
    C   C66   0.029524  0.620561  0.283578  0.028992
    C   C67   0.001313  0.625808  0.293381  0.042933
    C   C68   0.987868  0.494939  0.138081  0.730762
    C   C69   0.081639  0.615041  0.286783  -0.186729
    C   C70   0.981329  0.623457  0.255318  -0.033998
    C   C71   0.970395  0.633046  0.328394  -0.182971
    C   C72   0.968128  0.628163  0.351686  -0.051070
    C   C73   0.977161  0.628041  0.278721  -0.188797
    C   C74   0.325336  0.805728  0.573978  0.457823
    C   C75   0.372849  0.793097  0.590861  0.465965
    C   C76   0.377965  0.741757  0.563479  -0.213086
    C   C77   0.391857  0.722292  0.547168  -0.024978
    C   C78   0.378920  0.757057  0.517525  -0.039154
    C   C79   0.487508  0.668571  0.071953  0.712272
    C   C80   0.365249  0.776571  0.533933  -0.197314
    C   C81   0.365277  0.769075  0.557031  0.274949
    C   C82   0.333319  0.829507  0.607824  0.117411
    C   C83   0.314660  0.825952  0.590614  -0.121926
    C   C84   0.285286  0.842344  0.590309  -0.047124
    C   C85   0.362609  0.812813  0.607879  -0.134640
    C   C86   0.392909  0.729959  0.524190  -0.102212
    C   C87   0.238827  0.006232  0.762903  -0.108984
    C   C88   0.283786  0.888362  0.640032  0.059594
    C   C89   0.330557  0.870762  0.660444  0.058677
    C   C90   0.542915  0.645345  0.119671  0.722541
    C   C91   0.301992  0.889459  0.658670  0.002764
    C   C92   0.256183  0.908831  0.638044  -0.191510
    C   C93   0.246415  0.928804  0.654712  -0.030238
    C   C94   0.263804  0.928899  0.673801  -0.134819
    C   C95   0.291534  0.909390  0.675709  0.130811
    C   C96   0.308657  0.909988  0.694890  -0.124479
    C   C97   0.297835  0.929647  0.711894  0.462961
    C   C98   0.253695  0.948663  0.690853  0.468025
    C   C99   0.233579  0.969685  0.739108  -0.195404
    C   C100  0.223134  0.988493  0.756675  -0.040923
    C   C101  0.526452  0.581570  0.124332  0.763435
    C   C102  0.264900  0.005168  0.751242  -0.019575
    C   C103  0.275194  0.986463  0.733548  -0.205865
    C   C104  0.259642  0.968574  0.727490  0.250001
    C   C105  0.293623  0.867091  0.623787  0.044614
    C   C106  0.322853  0.849562  0.624766  0.019698
    C   C107  0.341730  0.851915  0.642539  0.039780
    C   C108  0.274851  0.862658  0.606623  -0.187682
    C   C109  0.381779  0.816203  0.624682  -0.033055
    C   C110  0.347159  0.871185  0.680334  -0.189910
    C   C111  0.336290  0.890548  0.697289  -0.037198
    C   C112  0.074982  0.466501  0.498956  0.757830
    C   C113  0.471560  0.602307  0.077138  0.729587
    C   C114  0.371553  0.835461  0.641804  -0.182497
    C   C115  0.569963  0.504326  0.215731  0.456248
    C   C116  0.597232  0.535373  0.211373  0.451528
    C   C117  0.582864  0.530136  0.160486  -0.226345
    C   C118  0.569500  0.545066  0.141122  0.010315
    C   C119  0.522285  0.557710  0.160561  -0.027351
    C   C120  0.535571  0.542822  0.179752  -0.197921
    C   C121  0.566087  0.529978  0.180251  0.256819
    C   C122  0.589682  0.519658  0.249375  0.113190
    C   C123  0.574541  0.503438  0.239479  -0.102416
    C   C124  0.613583  0.670754  0.479523  0.496235
    C   C125  0.562590  0.487599  0.253492  -0.052703
    C   C126  0.602517  0.534456  0.235000  -0.131151
    C   C127  0.539369  0.559935  0.141566  -0.155764
    C   C128  0.503780  0.624227  0.434068  -0.105791
    C   C129  0.569786  0.516900  0.310738  0.049639
    C   C130  0.602439  0.544983  0.306798  0.047400
    C   C131  0.583070  0.535282  0.320061  0.013583
    C   C132  0.550098  0.508128  0.324640  -0.192434
    C   C133  0.542627  0.518545  0.346543  -0.027169
    C   C134  0.554751  0.537714  0.355276  -0.135024
    C   C135  0.621968  0.709123  0.496827  0.486729
    C   C136  0.575764  0.545195  0.342455  0.130711
    C   C137  0.588100  0.563962  0.351755  -0.122738
    C   C138  0.577574  0.576632  0.372616  0.470492
    C   C139  0.544478  0.550794  0.376064  0.459637
    C   C140  0.524004  0.615907  0.395719  -0.182099
    C   C141  0.506262  0.633446  0.411771  -0.047811
    C   C142  0.519685  0.597337  0.440253  -0.032489
    C   C143  0.537240  0.579630  0.423985  -0.200076
    C   C144  0.539308  0.588913  0.401630  0.282408
    C   C145  0.574678  0.509400  0.287362  0.058011
    C   C146  0.554948  0.716942  0.469337  -0.219218
    C   C147  0.590263  0.522492  0.273340  0.023556
    C   C148  0.604940  0.539623  0.282945  0.050492
    C   C149  0.562815  0.490355  0.277188  -0.192608
    C   C150  0.618480  0.550195  0.244445  -0.039884
    C   C151  0.617370  0.561299  0.317559  -0.182735
    C   C152  0.610039  0.570849  0.339710  -0.044315
    C   C153  0.619905  0.552641  0.268086  -0.183866
    C   C154  0.155281  0.179349  0.935483  0.470793
    C   C155  0.113326  0.196634  0.911701  0.467308
    C   C156  0.137931  0.137650  0.894179  -0.194071
    C   C157  0.525392  0.717734  0.469141  -0.020376
    C   C158  0.149827  0.117430  0.877911  -0.030787
    C   C159  0.191691  0.134094  0.873009  -0.039367
    C   C160  0.179699  0.154346  0.889211  -0.193355
    C   C161  0.152725  0.156286  0.899762  0.245218
    C   C162  0.116728  0.220365  0.946758  0.131498
    C   C163  0.143910  0.200746  0.950937  -0.137051
    C   C164  0.159526  0.202402  0.970673  -0.031793
    C   C165  0.101264  0.218017  0.927069  -0.130370
    C   C166  0.176699  0.115656  0.867167  -0.110360
    C   C167  0.030740  0.422575  0.078896  -0.088840
    C   C168  0.529001  0.704533  0.509181  -0.052716
    C   C169  0.111643  0.268203  0.995229  0.043927
    C   C170  0.065348  0.282483  0.973891  0.039796
    C   C171  0.083047  0.286395  0.991929  0.018141
    C   C172  0.129501  0.274097  0.012377  -0.190162
    C   C173  0.118732  0.296640  0.026466  -0.035055
    C   C174  0.089931  0.313858  0.023892  -0.136105
    C   C175  0.072150  0.308802  0.006704  0.121845
    C   C176  0.043482  0.326562  0.004327  -0.126410
    C   C177  0.033022  0.348907  0.019083  0.468623
    C   C178  0.079162  0.336542  0.038120  0.468009
    C   C179  0.558227  0.704432  0.509468  -0.164791
    C   C180  0.033141  0.403471  0.040837  -0.204935
    C   C181  0.027974  0.426154  0.055101  -0.031405
    C   C182  0.036590  0.396418  0.088369  -0.041843
    C   C183  0.041342  0.373850  0.074116  -0.192706
    C   C184  0.040737  0.377184  0.050298  0.261397
    C   C185  0.121992  0.244933  0.981089  0.060852
    C   C186  0.105268  0.242205  0.962000  0.000531
    C   C187  0.077310  0.261226  0.957940  0.058652
    C   C188  0.148752  0.224146  0.985601  -0.192785
    C   C189  0.074126  0.237425  0.922516  -0.034967
    C   C190  0.571793  0.708792  0.489204  0.250952
    C   C191  0.036017  0.300052  0.972313  -0.181924
    C   C192  0.025307  0.321760  0.987346  -0.039294
    C   C193  0.062229  0.258720  0.937713  -0.190186
    C   C194  0.399969  0.769092  0.016039  0.466722
    C   C195  0.444385  0.771562  0.999163  0.463319
    C   C196  0.443091  0.739398  0.052723  -0.183194
    C   C197  0.456946  0.717099  0.066727  -0.044998
    C   C198  0.479758  0.691264  0.033380  -0.047380
    C   C199  0.465344  0.713438  0.019308  -0.193123
    C   C200  0.446638  0.737486  0.028912  0.235848
    C   C201  0.662858  0.667640  0.491679  0.125164
    C   C202  0.397679  0.803306  0.986872  0.130828
    C   C203  0.383533  0.791186  0.002635  -0.135676
    C   C204  0.352918  0.800874  0.004694  -0.037658
    C   C205  0.428334  0.793159  0.985028  -0.127085
    C   C206  0.475083  0.692845  0.057107  -0.088695
    C   C207  0.251208  0.999948  0.861297  -0.102385
    C   C208  0.334622  0.859673  0.963538  0.062894
    C   C209  0.378940  0.856906  0.941347  0.058056
    C   C210  0.348650  0.869181  0.945600  0.006040
    C   C211  0.304864  0.874089  0.968512  -0.195419
    C   C212  0.643334  0.655765  0.481776  -0.176646
    C   C213  0.289163  0.896312  0.955214  -0.028942
    C   C214  0.302597  0.904591  0.936529  -0.136773
    C   C215  0.332237  0.891118  0.931789  0.138552
    C   C216  0.345273  0.899799  0.913062  -0.130171
    C   C217  0.328562  0.921322  0.899192  0.458979
    C   C218  0.286605  0.926630  0.922830  0.464148
    C   C219  0.256647  0.956347  0.879636  -0.185593
    C   C220  0.240743  0.977829  0.865489  -0.036876
    C   C221  0.277282  0.000727  0.871795  -0.033849
    C   C222  0.292821  0.979525  0.886295  -0.186488
    C   C223  0.020770  0.451119  0.539073  0.701875
    C   C224  0.653365  0.628713  0.474683  -0.010177
    C   C225  0.282811  0.957056  0.890057  0.240718
    C   C226  0.350637  0.836240  0.976194  0.043013
    C   C227  0.381328  0.825305  0.973094  0.014032
    C   C228  0.395788  0.836182  0.956324  0.044193
    C   C229  0.336636  0.823178  0.991753  -0.185250
    C   C230  0.442884  0.805001  0.969370  -0.037944
    C   C231  0.391558  0.865532  0.921976  -0.191308
    C   C232  0.374850  0.886600  0.907991  -0.038030
    C   C233  0.426889  0.826138  0.955115  -0.182383
    C   C234  0.197058  0.501682  0.049144  0.485066
    C   C235  0.652216  0.694805  0.498629  -0.133265
    C   C236  0.227069  0.457511  0.060339  0.494719
    C   C237  0.148699  0.475657  0.054363  -0.207174
    C   C238  0.122070  0.476070  0.064549  -0.034373
    C   C239  0.146583  0.464343  0.101155  -0.043921
    C   C240  0.173057  0.464881  0.091104  -0.197846
    C   C241  0.174032  0.471268  0.067780  0.244026
    C   C242  0.250049  0.489761  0.044996  0.138810
    C   C243  0.221990  0.508308  0.041935  -0.143711
    C   C244  0.218908  0.534001  0.032718  -0.031012
    C   C245  0.252490  0.464023  0.053956  -0.149296
    C   C246  0.513107  0.709622  0.488686  -0.093984
    C   C247  0.120809  0.471040  0.088048  -0.115408
    C   C248  0.451574  0.589139  0.066173  -0.112669
    C   C249  0.297789  0.531089  0.026491  0.048558
    C   C250  0.328387  0.488575  0.043933  0.052835
    C   C251  0.325234  0.514612  0.034740  0.026432
    C   C252  0.296325  0.555710  0.015133  -0.183751
    C   C253  0.320403  0.565444  0.014936  -0.042246
    C   C254  0.346480  0.550676  0.025774  -0.124968
    C   C255  0.349343  0.524847  0.034717  0.129212
    C   C256  0.376072  0.510000  0.044704  -0.136331
    C   C257  0.929486  0.525403  0.514731  -0.117807
    C   C258  0.398489  0.521996  0.047378  0.471836
    C   C259  0.369307  0.562067  0.028454  0.472956
    C   C260  0.443509  0.554822  0.041057  -0.187451
    C   C261  0.462331  0.568205  0.050146  -0.040139
    C   C262  0.421814  0.597039  0.072572  -0.039607
    C   C263  0.403081  0.583873  0.063334  -0.181160
    C   C264  0.413855  0.562614  0.047748  0.245794
    C   C265  0.272341  0.523200  0.030623  0.061312
    C   C266  0.275370  0.497279  0.039993  0.020947
    C   C267  0.303450  0.479176  0.045176  0.056365
    C   C268  0.730560  0.608011  0.496445  0.051195
    C   C269  0.243689  0.541353  0.026965  -0.196950
    C   C270  0.280364  0.445035  0.056751  -0.029735
    C   C271  0.356137  0.473243  0.052863  -0.191171
    C   C272  0.379549  0.483953  0.053345  -0.040450
    C   C273  0.305576  0.452463  0.052443  -0.190296
    C   C274  0.858827  0.523230  0.189290  0.470901
    C   C275  0.868367  0.565598  0.187049  0.472017
    C   C276  0.928607  0.505934  0.183864  -0.203690
    C   C277  0.955538  0.495084  0.172324  -0.036505
    C   C278  0.934766  0.521933  0.138716  -0.017267
    C   C279  0.742576  0.649128  0.506480  0.056918
    C   C280  0.908105  0.532695  0.150225  -0.212983
    C   C281  0.905060  0.525204  0.172906  0.268056
    C   C282  0.818894  0.565108  0.195650  0.118022
    C   C283  0.829302  0.536671  0.195089  -0.132531
    C   C284  0.809714  0.521902  0.198757  -0.039794
    C   C285  0.838947  0.579523  0.192493  -0.121198
    C   C286  0.958797  0.503428  0.149795  -0.122390
    C   C287  0.565484  0.651705  0.133951  -0.114669
    C   C288  0.737843  0.578269  0.201350  0.036403
    C   C289  0.747762  0.621180  0.193583  0.045909
    C   C290  0.751121  0.620688  0.503580  0.022392
    C   C291  0.727770  0.606229  0.195811  0.045567
    C   C292  0.716748  0.564813  0.205795  -0.180378
    C   C293  0.686937  0.577742  0.201640  -0.033539
    C   C294  0.677545  0.604374  0.193190  -0.160877
    C   C295  0.697628  0.618945  0.191258  0.101350
    C   C296  0.687560  0.645822  0.183339  -0.112320
    C   C297  0.658510  0.656805  0.175462  0.456907
    C   C298  0.648533  0.615952  0.185495  0.528255
    C   C299  0.616577  0.649475  0.138266  -0.174285
    C   C300  0.592735  0.650373  0.124218  -0.044953
    C   C301  0.739001  0.579279  0.496169  -0.187326
    C   C302  0.561675  0.654188  0.157770  0.003283
    C   C303  0.585762  0.652819  0.171847  -0.233220
    C   C304  0.613504  0.649503  0.162102  0.252341
    C   C305  0.768552  0.564194  0.200985  0.058499
    C   C306  0.788553  0.579028  0.198026  0.023769
    C   C307  0.778367  0.607649  0.196230  0.064069
    C   C308  0.779759  0.535409  0.201839  -0.187605
    C   C309  0.829277  0.607873  0.193836  -0.046629
    C   C310  0.736767  0.648945  0.187068  -0.180706
    C   C311  0.707084  0.660971  0.181855  -0.060273
    C   C312  0.767737  0.563693  0.501305  -0.028222
    C   C313  0.799313  0.621848  0.195804  -0.198007
    C   C314  0.788752  0.576396  0.506441  -0.143072
    C   C315  0.961426  0.510560  0.513363  0.734091
    C   C316  0.780469  0.604756  0.507708  0.134652
    C   C317  0.801877  0.616997  0.512944  -0.132664
    C   C318  0.831399  0.600905  0.515654  0.477209
    C   C319  0.818058  0.560744  0.510311  0.482905
    C   C320  0.881677  0.539343  0.496443  -0.191065
    C   C321  0.911239  0.523511  0.496551  -0.039692
    C   C322  0.917774  0.542774  0.533110  -0.020561
    C   C323  0.887862  0.558083  0.533297  -0.206336
    C   C324  0.869778  0.556633  0.514803  0.235717
    C   C325  0.701877  0.624208  0.490194  0.065790
    C   C326  0.483546  0.642864  0.450513  0.741543
    C   C327  0.692509  0.652198  0.495209  0.024278
    C   C328  0.712410  0.664666  0.504118  0.056543
    C   C329  0.682305  0.613012  0.478908  -0.199107
    C   C330  0.671632  0.707020  0.508259  -0.044050
    C   C331  0.764540  0.661230  0.511674  -0.191797
    C   C332  0.793857  0.645332  0.514588  -0.036140
    C   C333  0.701433  0.692299  0.510731  -0.191383
    C   C334  0.180366  0.480487  0.447007  0.466209
    C   C335  0.214186  0.449797  0.471931  0.481777
    C   C336  0.142944  0.443987  0.461901  -0.206201
    C   C337  0.487066  0.700117  0.486455  0.723010
    C   C338  0.115245  0.445564  0.470885  -0.013656
    C   C339  0.126555  0.466227  0.505337  -0.047871
    C   C340  0.154286  0.464312  0.496462  -0.169893
    C   C341  0.162004  0.454424  0.474320  0.243950
    C   C342  0.229962  0.483010  0.450300  0.139532
    C   C343  0.201995  0.492171  0.440471  -0.151342
    C   C344  0.195239  0.513914  0.425008  -0.017639
    C   C345  0.236423  0.460843  0.465364  -0.130943
    C   C346  0.106465  0.457977  0.492155  -0.136253
    C   C347  0.388215  0.634919  0.464826  -0.085318
    C   C348  0.410946  0.709994  0.507548  0.702511
    C   C349  0.260696  0.537880  0.432705  0.060716
    C   C350  0.298942  0.502223  0.452599  0.051697
    C   C351  0.288941  0.528311  0.442509  0.014847
    C   C352  0.250769  0.564852  0.424114  -0.191328
    C   C353  0.268320  0.581828  0.425580  -0.042581
    C   C354  0.296360  0.572226  0.435208  -0.133617
    C   C355  0.306936  0.545327  0.443001  0.134634
    C   C356  0.335311  0.535931  0.452073  -0.127159
    C   C357  0.352214  0.553662  0.453976  0.459687
    C   C358  0.313224  0.589857  0.438154  0.465880
    C   C359  0.407946  0.651067  0.470535  0.724572
    C   C360  0.365221  0.601109  0.476105  -0.191643
    C   C361  0.381453  0.618422  0.481689  -0.049238
    C   C362  0.378451  0.634152  0.442322  -0.052483
    C   C363  0.362880  0.616195  0.436591  -0.190107
    C   C364  0.356423  0.599422  0.453460  0.248129
    C   C365  0.242348  0.520983  0.432975  0.053079
    C   C366  0.250622  0.496876  0.446124  0.013664
    C   C367  0.278839  0.487299  0.455993  0.054921
    C   C368  0.215209  0.528184  0.421225  -0.193386
    C   C369  0.264494  0.451011  0.474930  -0.045098
    C   C370  0.235438  0.022007  0.845230  0.731468
    C   C371  0.328546  0.492272  0.459921  -0.187095
    C   C372  0.346522  0.508958  0.459548  -0.039042
    C   C373  0.285583  0.463858  0.470165  -0.189564
    C   C374  0.104910  0.207046  0.730031  0.470871
    C   C375  0.135871  0.182132  0.700557  0.469423
    C   C376  0.169690  0.156803  0.743922  -0.181644
    C   C377  0.183317  0.135962  0.759328  -0.044952
    C   C378  0.137191  0.126104  0.764290  -0.016906
    C   C379  0.123524  0.147163  0.748940  -0.206269
    C   C380  0.139810  0.162480  0.738682  0.264480
    Cu  Cu1   0.023770  0.504309  0.522526  1.031994
    Cu  Cu2   0.527836  0.613620  0.082551  1.044890
    Cu  Cu3   0.012712  0.471211  0.491432  1.017716
    Cu  Cu4   0.436261  0.693476  0.461701  1.029775
    Cu  Cu5   0.457403  0.658957  0.496228  1.025066
    Cu  Cu6   0.184374  0.052509  0.817142  1.038006
    Cu  Cu7   0.232674  0.067945  0.814194  1.048641
    Cu  Cu8   0.027908  0.502773  0.102109  1.036838
    Cu  Cu9   0.051875  0.466720  0.135039  1.034036
    Cu  Cu10  0.485839  0.635947  0.113097  1.030415
    H   H1    0.519690  0.698052  0.524575  0.120046
    H   H2    0.565715  0.719591  0.453251  0.154359
    H   H3    0.023785  0.446405  0.047339  0.110094
    H   H4    0.033013  0.406286  0.022200  0.146297
    H   H5    0.133459  0.300431  0.039470  0.128144
    H   H6    0.152591  0.262362  0.015006  0.135503
    H   H7    0.161867  0.223380  0.000982  0.136364
    H   H8    0.137725  0.103218  0.873636  0.104806
    H   H9    0.116918  0.138866  0.902511  0.143148
    H   H10   0.061703  0.236434  0.906981  0.130867
    H   H11   0.020072  0.297338  0.959993  0.135676
    H   H12   0.038711  0.393170  0.106937  0.109257
    H   H13   0.663889  0.728196  0.514140  0.134604
    H   H14   0.002462  0.334921  0.985386  0.131434
    H   H15   0.047030  0.353361  0.081687  0.145555
    H   H16   0.041443  0.273466  0.932393  0.137717
    H   H17   0.493601  0.672336  0.025531  0.114032
    H   H18   0.468032  0.711524  0.000673  0.146002
    H   H19   0.341089  0.791377  0.016532  0.132479
    H   H20   0.220565  0.976704  0.857234  0.110608
    H   H21   0.248760  0.938715  0.882166  0.146118
    H   H22   0.266128  0.906884  0.959732  0.127117
    H   H23   0.293007  0.869490  0.983208  0.139365
    H   H24   0.760185  0.683238  0.512655  0.142260
    H   H25   0.312764  0.828915  0.993877  0.136321
    H   H26   0.453220  0.718843  0.085271  0.110809
    H   H27   0.428915  0.758242  0.060501  0.146335
    H   H28   0.466983  0.797927  0.967860  0.130051
    H   H29   0.414233  0.855779  0.916407  0.137959
    H   H30   0.285715  0.017958  0.868900  0.107605
    H   H31   0.385567  0.892539  0.893109  0.132513
    H   H32   0.312998  0.980571  0.894623  0.142321
    H   H33   0.440012  0.834786  0.943866  0.138623
    H   H34   0.145773  0.460700  0.119632  0.116779
    H   H35   0.931829  0.544484  0.547458  0.111305
    H   H36   0.192549  0.461899  0.101929  0.161950
    H   H37   0.197149  0.549079  0.030216  0.131294
    H   H38   0.485607  0.561647  0.045018  0.114687
    H   H39   0.452100  0.538092  0.028900  0.147382
    H   H40   0.317973  0.585228  0.006813  0.133675
    H   H41   0.276798  0.568232  0.006071  0.138735
    H   H42   0.239208  0.562298  0.020974  0.144700
    H   H43   0.102088  0.480976  0.054035  0.118781
    H   H44   0.149224  0.480301  0.036037  0.152960
    H   H45   0.283032  0.424323  0.062972  0.130280
    H   H46   0.810252  0.655605  0.518283  0.130916
    H   H47   0.360369  0.453360  0.061059  0.141072
    H   H48   0.412875  0.613321  0.085050  0.111770
    H   H49   0.400284  0.471789  0.061293  0.133260
    H   H50   0.379982  0.589753  0.068921  0.148821
    H   H51   0.326513  0.436396  0.054885  0.140694
    H   H52   0.936593  0.528727  0.121106  0.107211
    H   H53   0.889563  0.547435  0.141447  0.159111
    H   H54   0.817218  0.499558  0.198482  0.131075
    H   H55   0.596209  0.648260  0.105664  0.114180
    H   H56   0.638370  0.646298  0.130530  0.147758
    H   H57   0.878764  0.571326  0.547902  0.157546
    H   H58   0.671439  0.566158  0.204278  0.117821
    H   H59   0.722392  0.544006  0.212404  0.131815
    H   H60   0.765891  0.522222  0.203308  0.140089
    H   H61   0.974164  0.480763  0.181331  0.118650
    H   H62   0.926319  0.499951  0.201660  0.144749
    H   H63   0.844725  0.619695  0.192468  0.135189
    H   H64   0.750689  0.661854  0.184145  0.140284
    H   H65   0.540646  0.654778  0.165746  0.107943
    H   H66   0.699809  0.682157  0.175781  0.138389
    H   H67   0.583272  0.652532  0.190520  0.158287
    H   H68   0.714958  0.703028  0.519084  0.141444
    H   H69   0.793449  0.643993  0.196821  0.146983
    H   H70   0.120139  0.475977  0.522001  0.115982
    H   H71   0.168825  0.473061  0.506084  0.150985
    H   H72   0.173896  0.520825  0.416253  0.118916
    H   H73   0.571568  0.697266  0.524854  0.134987
    H   H74   0.388779  0.618906  0.499408  0.116019
    H   H75   0.359693  0.588620  0.489598  0.149779
    H   H76   0.259316  0.602891  0.419412  0.130425
    H   H77   0.228627  0.574419  0.417404  0.137917
    H   H78   0.208528  0.544841  0.408789  0.134959
    H   H79   0.099736  0.439210  0.460211  0.114423
    H   H80   0.148721  0.436501  0.444428  0.153304
    H   H81   0.270225  0.433654  0.486839  0.134375
    H   H82   0.338886  0.471401  0.465895  0.144508
    H   H83   0.384090  0.646589  0.428852  0.116601
    H   H84   0.638723  0.619135  0.466172  0.118864
    H   H85   0.369126  0.500668  0.465985  0.133067
    H   H86   0.356374  0.614918  0.418748  0.146906
    H   H87   0.306392  0.455745  0.479318  0.137647
    H   H88   0.124146  0.114274  0.772155  0.105030
    H   H89   0.100108  0.151457  0.744811  0.140128
    H   H90   0.064163  0.254637  0.740306  0.130176
    H   H91   0.012533  0.401601  0.533477  0.114504
    H   H92   0.022945  0.363879  0.561512  0.138372
    H   H93   0.007658  0.358784  0.665306  0.126928
    H   H94   0.022966  0.320757  0.690720  0.136953
    H   H95   0.920098  0.510538  0.481758  0.111769
    H   H96   0.045731  0.292873  0.715521  0.137328
    H   H97   0.206752  0.132004  0.763169  0.113193
    H   H98   0.182487  0.168893  0.736080  0.142387
    H   H99   0.150827  0.183034  0.656332  0.127101
    H   H100  0.129635  0.256933  0.613607  0.136259
    H   H101  0.036815  0.452160  0.583979  0.114145
    H   H102  0.112753  0.295592  0.589185  0.126305
    H   H103  0.047489  0.413983  0.611815  0.137847
    H   H104  0.133244  0.220158  0.630325  0.138612
    H   H105  0.080909  0.515955  0.182586  0.110852
    H   H106  0.867997  0.538476  0.481599  0.157875
    H   H107  0.077395  0.549053  0.213023  0.141438
    H   H108  0.106835  0.608572  0.255659  0.136171
    H   H109  0.031983  0.571030  0.476114  0.109182
    H   H110  0.032117  0.602225  0.443486  0.142331
    H   H111  0.093884  0.593307  0.369443  0.137009
    H   H112  0.099240  0.602477  0.330007  0.141355
    H   H113  0.101329  0.615243  0.296097  0.141938
    H   H114  0.022423  0.579186  0.140199  0.110731
    H   H115  0.019706  0.612851  0.170948  0.143165
    H   H116  0.962167  0.623976  0.244828  0.131205
    H   H117  0.773392  0.541432  0.500795  0.129940
    H   H118  0.949548  0.641721  0.319407  0.142272
    H   H119  0.997338  0.521683  0.431176  0.104771
    H   H120  0.946108  0.632154  0.359199  0.136166
    H   H121  0.997647  0.552610  0.399164  0.145794
    H   H122  0.954666  0.631401  0.284736  0.142124
    H   H123  0.379696  0.763538  0.499681  0.112103
    H   H124  0.355678  0.797976  0.528748  0.145687
    H   H125  0.269907  0.839662  0.577336  0.134012
    H   H126  0.202781  0.988835  0.765623  0.109793
    H   H127  0.221447  0.955523  0.734708  0.147559
    H   H128  0.723612  0.567897  0.492941  0.139090
    H   H129  0.224826  0.944232  0.652450  0.128469
    H   H130  0.241607  0.910785  0.623368  0.136572
    H   H131  0.251397  0.873913  0.605560  0.135739
    H   H132  0.402511  0.701203  0.552767  0.109431
    H   H133  0.377845  0.735650  0.581499  0.150944
    H   H134  0.405093  0.803880  0.624839  0.130441
    H   H135  0.368473  0.856173  0.683992  0.137418
    H   H136  0.277448  0.018936  0.755748  0.103973
    H   H137  0.349961  0.890056  0.712420  0.130922
    H   H138  0.295502  0.985916  0.724413  0.146393
    H   H139  0.688810  0.592203  0.472385  0.138741
    H   H140  0.388249  0.837401  0.653774  0.136401
    H   H141  0.498702  0.569121  0.161322  0.114230
    H   H142  0.522206  0.543472  0.195191  0.144660
    H   H143  0.551709  0.473705  0.246237  0.131485
    H   H144  0.494149  0.654351  0.406495  0.114041
    H   H145  0.525087  0.623187  0.378147  0.135497
    H   H146  0.526229  0.512098  0.356265  0.126929
    H   H147  0.538306  0.494405  0.318830  0.137995
    H   H148  0.552934  0.477323  0.286928  0.142098
    H   H149  0.583310  0.546803  0.126501  0.109930
    H   H150  0.513428  0.721198  0.452845  0.119812
    H   H151  0.606816  0.520249  0.160659  0.146463
    H   H152  0.629088  0.561858  0.233603  0.121707
    H   H153  0.634777  0.567597  0.309353  0.135582
    H   H154  0.517919  0.589708  0.457594  0.108615
    H   H155  0.621103  0.584581  0.346993  0.133588
    H   H156  0.549047  0.558442  0.428721  0.141796
    H   H157  0.631491  0.566566  0.273803  0.128190
    H   H158  0.212628  0.133224  0.864736  0.109557
    H   H159  0.191285  0.169045  0.893294  0.147751
    H   H160  0.180507  0.186880  0.974783  0.127477
    N   N1    0.603285  0.696837  0.487388  -0.191765
    N   N2    0.270691  0.948683  0.709630  -0.175139
    N   N3    0.579956  0.521326  0.202213  -0.179147
    N   N4    0.555246  0.570671  0.383965  -0.196170
    N   N5    0.140058  0.177729  0.916076  -0.176531
    N   N6    0.050945  0.353574  0.035674  -0.163350
    N   N7    0.430060  0.759808  0.014373  -0.160550
    N   N8    0.299647  0.934560  0.904321  -0.163631
    N   N9    0.199853  0.476563  0.058369  -0.170170
    N   N10   0.394369  0.548058  0.039909  -0.174974
    N   N11   0.877514  0.537934  0.184578  -0.160492
    N   N12   0.839080  0.573104  0.514197  -0.169107
    N   N13   0.639817  0.641473  0.175977  -0.161858
    N   N14   0.186433  0.460219  0.463147  -0.170296
    N   N15   0.340604  0.580512  0.447848  -0.171024
    N   N16   0.126091  0.184115  0.722667  -0.190031
    N   N17   0.045210  0.363292  0.603762  -0.162431
    N   N18   0.042274  0.600567  0.214089  -0.150117
    N   N19   0.016443  0.596009  0.399506  -0.166400
    N   N20   0.354137  0.789653  0.574348  -0.164484
    O   O1    0.021681  0.529482  0.496135  -0.653867
    O   O2    0.483450  0.635974  0.472544  -0.648303
    O   O3    0.468413  0.708725  0.469090  -0.620171
    O   O4    0.485581  0.679579  0.499807  -0.614387
    O   O5    0.410871  0.716685  0.485470  -0.627185
    O   O6    0.428863  0.686318  0.515236  -0.606800
    O   O7    0.408625  0.672053  0.457367  -0.632846
    O   O8    0.426405  0.642983  0.488045  -0.625302
    O   O9    0.208013  0.024380  0.838724  -0.649061
    O   O10   0.249290  0.038811  0.836971  -0.624766
    O   O11   0.201946  0.028044  0.791471  -0.635884
    O   O12   0.011478  0.500679  0.469509  -0.598391
    O   O13   0.244219  0.040881  0.789195  -0.625350
    O   O14   0.167382  0.082542  0.794928  -0.629728
    O   O15   0.209728  0.095175  0.791981  -0.639947
    O   O16   0.173012  0.079178  0.842336  -0.623977
    O   O17   0.214350  0.093349  0.839189  -0.642169
    O   O18   0.023574  0.470880  0.085445  -0.609287
    O   O19   0.043266  0.439982  0.114527  -0.615123
    O   O20   0.068240  0.493345  0.089797  -0.640859
    O   O21   0.089521  0.462260  0.118437  -0.641054
    O   O22   0.035789  0.529894  0.123255  -0.653704
    O   O23   0.065537  0.485824  0.514720  -0.618858
    O   O24   0.057653  0.497970  0.151088  -0.590559
    O   O25   0.990630  0.507169  0.118463  -0.629164
    O   O26   0.011241  0.477123  0.147890  -0.645675
    O   O27   0.475560  0.667898  0.092480  -0.623886
    O   O28   0.509280  0.647253  0.064365  -0.639850
    O   O29   0.516190  0.648497  0.128266  -0.632319
    O   O30   0.551235  0.632364  0.099939  -0.617008
    O   O31   0.502000  0.601359  0.129937  -0.599820
    O   O32   0.541086  0.583279  0.105177  -0.649527
    O   O33   0.461683  0.619018  0.094705  -0.626408
    O   O34   0.055949  0.457692  0.487183  -0.635279
    O   O35   0.499266  0.596803  0.069858  -0.631930
    O   O36   0.594264  0.658725  0.470805  -0.538562
    O   O37   0.825712  0.532986  0.510133  -0.518044
    O   O38   0.610957  0.735019  0.504976  -0.539917
    O   O39   0.852655  0.613087  0.518821  -0.512346
    O   O40   0.152364  0.491093  0.438823  -0.501327
    O   O41   0.301603  0.616755  0.432505  -0.508039
    O   O42   0.219776  0.429435  0.487896  -0.531314
    O   O43   0.380247  0.544196  0.462317  -0.498992
    O   O44   0.095835  0.208784  0.752297  -0.513909
    O   O45   0.024967  0.474630  0.544597  -0.618585
    O   O46   0.008326  0.385883  0.630208  -0.526751
    O   O47   0.156548  0.158798  0.693440  -0.514141
    O   O48   0.082288  0.341489  0.577179  -0.520435
    O   O49   0.092774  0.596451  0.217275  -0.521934
    O   O50   0.068228  0.582289  0.403323  -0.502414
    O   O51   0.991564  0.605380  0.210488  -0.491940
    O   O52   0.964609  0.610074  0.396379  -0.515635
    O   O53   0.306853  0.801721  0.557599  -0.519654
    O   O54   0.226990  0.968234  0.688561  -0.509242
    O   O55   0.401819  0.777665  0.590435  -0.510247
    O   O56   0.015291  0.446063  0.517517  -0.634199
    O   O57   0.314108  0.929375  0.731084  -0.507522
    O   O58   0.553766  0.489594  0.206223  -0.513789
    O   O59   0.522010  0.545271  0.387505  -0.507607
    O   O60   0.606856  0.552546  0.197885  -0.486230
    O   O61   0.588602  0.595984  0.381144  -0.520446
    O   O62   0.181505  0.159853  0.939907  -0.513135
    O   O63   0.097239  0.342163  0.054045  -0.509970
    O   O64   0.098776  0.195110  0.891961  -0.506909
    O   O65   0.004812  0.365901  0.017068  -0.516365
    O   O66   0.385814  0.756417  0.030495  -0.510449
    O   O67   0.980370  0.518969  0.525621  -0.644547
    O   O68   0.258086  0.940583  0.928257  -0.509785
    O   O69   0.474429  0.762628  0.998096  -0.510414
    O   O70   0.341026  0.928697  0.880190  -0.511190
    O   O71   0.170026  0.521006  0.048160  -0.512912
    O   O72   0.366064  0.587758  0.020557  -0.522934
    O   O73   0.229484  0.432225  0.068813  -0.525758
    O   O74   0.423564  0.508453  0.058986  -0.504071
    O   O75   0.868390  0.495630  0.186646  -0.516518
    O   O76   0.629725  0.600768  0.185535  -0.545644
    O   O77   0.887727  0.579760  0.183031  -0.519309
    O   O78   0.970958  0.490506  0.498267  -0.617837
    O   O79   0.649194  0.682367  0.166178  -0.521199
    O   O80   0.465199  0.666343  0.442811  -0.598799
